Version 4
SHEET 1 880 680
SYMBOL D_latch 48 176 R0
SYMATTR InstName X1
