Version 4
SHEET 1 1284 680
WIRE -784 -272 -784 -288
WIRE -464 -272 -464 -288
WIRE -144 -272 -144 -288
WIRE 304 -240 272 -240
WIRE 672 -240 640 -240
WIRE 304 -192 272 -192
WIRE -784 -176 -784 -192
WIRE -464 -176 -464 -192
WIRE -144 -176 -144 -192
WIRE 672 -176 640 -176
WIRE 336 -128 336 -144
WIRE 336 -128 272 -128
WIRE 368 -128 368 -144
WIRE 736 -128 736 -144
WIRE 224 96 224 48
WIRE 224 96 32 96
WIRE 368 96 224 96
WIRE 672 96 368 96
WIRE 368 112 368 96
WIRE 640 112 608 112
WIRE -784 128 -784 112
WIRE -656 128 -656 112
WIRE -528 128 -528 112
WIRE -400 128 -400 112
WIRE -272 128 -272 112
WIRE 0 128 -32 128
WIRE 640 128 640 112
WIRE 112 144 96 144
WIRE 192 144 192 128
WIRE 192 144 112 144
WIRE 304 144 288 144
WIRE 320 144 304 144
WIRE 432 144 400 144
WIRE 640 144 608 144
WIRE 752 144 736 144
WIRE 0 160 -32 160
WIRE 192 160 192 144
WIRE 640 176 640 160
WIRE 640 176 608 176
WIRE 224 192 32 192
WIRE 368 192 368 176
WIRE 368 192 224 192
WIRE 672 192 368 192
WIRE -784 224 -784 208
WIRE -656 224 -656 208
WIRE -528 224 -528 208
WIRE -400 224 -400 208
WIRE -272 224 -272 208
WIRE 224 240 224 192
WIRE 352 320 352 304
WIRE 688 320 688 288
WIRE 1008 320 1008 288
WIRE 304 336 288 336
WIRE 304 352 304 336
WIRE 320 352 304 352
WIRE 656 352 624 352
WIRE 976 352 944 352
WIRE 320 368 288 368
WIRE 432 368 416 368
WIRE 768 368 752 368
WIRE 1104 368 1072 368
WIRE 320 384 304 384
WIRE 656 384 624 384
WIRE 976 384 944 384
WIRE 304 400 304 384
WIRE 304 400 288 400
WIRE 352 432 352 416
WIRE 688 432 688 416
WIRE 1008 448 1008 416
FLAG 224 48 Vdd
IOPIN 224 48 In
FLAG 224 240 0
FLAG 112 144 w1
FLAG 304 144 w2
FLAG -32 128 InA
IOPIN -32 128 In
FLAG -32 160 InB
IOPIN -32 160 In
FLAG 432 144 Out1
IOPIN 432 144 Out
FLAG -784 224 0
FLAG -784 112 Vdd
IOPIN -784 112 Out
FLAG -528 224 0
FLAG -528 112 InB
IOPIN -528 112 Out
FLAG -272 224 0
FLAG -272 112 InA
IOPIN -272 112 Out
FLAG 608 112 InA
IOPIN 608 112 In
FLAG 608 144 InB
IOPIN 608 144 In
FLAG 608 176 InC
IOPIN 608 176 In
FLAG -656 224 0
FLAG -656 112 InC
IOPIN -656 112 Out
FLAG 752 144 Out2
IOPIN 752 144 Out
FLAG 688 288 Vdd
IOPIN 688 288 In
FLAG 688 432 0
FLAG 768 368 Out3
IOPIN 768 368 Out
FLAG 624 352 InA
IOPIN 624 352 In
FLAG 624 384 InD
IOPIN 624 384 In
FLAG -400 224 0
FLAG -400 112 InD
IOPIN -400 112 Out
FLAG 352 304 Vdd
IOPIN 352 304 In
FLAG 352 432 0
FLAG 432 368 Out4
IOPIN 432 368 Out
FLAG 288 336 InA
IOPIN 288 336 In
FLAG 288 368 InD
IOPIN 288 368 In
FLAG 288 400 InD
IOPIN 288 400 In
FLAG 944 352 InA
IOPIN 944 352 In
FLAG 944 384 InB
IOPIN 944 384 In
FLAG 1008 288 Vdd
IOPIN 1008 288 In
FLAG 1008 448 0
FLAG 1104 368 Out4
IOPIN 1104 368 Out
FLAG 368 -272 Vdd
IOPIN 368 -272 In
FLAG 736 -272 Vdd
IOPIN 736 -272 In
FLAG 368 -128 0
FLAG 736 -128 0
FLAG 416 -240 Q_FF
IOPIN 416 -240 Out
FLAG 784 -240 Q_L
IOPIN 784 -240 Out
FLAG -144 -176 0
FLAG -144 -288 Data
IOPIN -144 -288 Out
FLAG -464 -176 0
FLAG -464 -288 Clock
IOPIN -464 -288 Out
FLAG 272 -240 Data
IOPIN 272 -240 In
FLAG 640 -240 Data
IOPIN 640 -240 In
FLAG 272 -192 Clock
IOPIN 272 -192 In
FLAG 640 -176 Clock
IOPIN 640 -176 In
FLAG -784 -176 0
FLAG -784 -288 Clear
IOPIN -784 -288 Out
FLAG 272 -128 Clear
IOPIN 272 -128 In
SYMBOL NAND2 16 144 R0
SYMATTR InstName Nand2_1
SYMBOL NAND2 208 144 R0
SYMATTR InstName Nand2_2
SYMBOL NOT 336 144 R0
SYMATTR InstName NOT_1
SYMBOL voltage -784 112 R0
WINDOW 0 24 16 Left 1
WINDOW 123 0 0 Left 0
WINDOW 39 0 0 Left 0
SYMATTR InstName Vsupply
SYMATTR Value 5
SYMBOL voltage -528 112 R0
WINDOW 0 24 16 Left 1
WINDOW 123 0 0 Left 0
WINDOW 39 0 0 Left 0
SYMATTR InstName VInB
SYMATTR Value 5
SYMBOL voltage -272 112 R0
WINDOW 0 24 16 Left 1
WINDOW 3 24 96 Left 1
WINDOW 123 0 0 Left 0
WINDOW 39 0 0 Left 0
SYMATTR InstName VInA
SYMATTR Value PULSE(0 5 0 100p 100p 5n 10n 1)
SYMBOL NAND3 656 144 R0
SYMATTR InstName Nand3_1
SYMBOL voltage -656 112 R0
WINDOW 0 24 16 Left 1
WINDOW 123 0 0 Left 0
WINDOW 39 0 0 Left 0
SYMATTR InstName VInC
SYMATTR Value 5
SYMBOL NOR2 672 368 R0
SYMATTR InstName Nor2_1
SYMBOL voltage -400 112 R0
WINDOW 0 24 16 Left 1
WINDOW 123 0 0 Left 0
WINDOW 39 0 0 Left 0
SYMATTR InstName VInD
SYMATTR Value 0
SYMBOL NOR3 336 368 R0
SYMATTR InstName Nor3_1
SYMBOL XOR2 992 368 R0
SYMATTR InstName XOR2_1
SYMBOL D_latch 656 -208 R0
SYMATTR InstName X1
SYMBOL D_FF 288 -208 R0
SYMATTR InstName X2
SYMBOL voltage -144 -288 R0
WINDOW 0 24 16 Left 1
WINDOW 3 24 96 Left 1
WINDOW 123 0 0 Left 0
WINDOW 39 0 0 Left 0
SYMATTR InstName VInData
SYMATTR Value PULSE(0 5 0 100p 100p 20n 40n 4)
SYMBOL voltage -464 -288 R0
WINDOW 0 24 16 Left 1
WINDOW 3 24 96 Left 1
WINDOW 123 0 0 Left 0
WINDOW 39 0 0 Left 0
SYMATTR InstName VInCLK
SYMATTR Value PULSE(0 5 5n 100p 100p 10n 20n 8)
SYMBOL voltage -784 -288 R0
WINDOW 0 24 16 Left 1
WINDOW 3 24 96 Left 1
WINDOW 123 0 0 Left 0
WINDOW 39 0 0 Left 0
SYMATTR InstName VInClear
SYMATTR Value PULSE(5 0 15n 100p 100p 40n 80n 1)
TEXT -600 312 Left 2 !.tran 0 160n 0 10p
TEXT 304 -368 Left 2 ;Flip Flop D
TEXT 688 -368 Left 2 ;Latch D
