Version 4
SHEET 1 904 680
WIRE 288 -176 112 -176
WIRE 480 -176 288 -176
WIRE 288 -160 288 -176
WIRE 256 -128 208 -128
WIRE 256 -96 224 -96
WIRE 352 -32 352 -112
WIRE 352 -32 240 -32
WIRE 224 -16 224 -96
WIRE 352 -16 224 -16
WIRE 480 48 480 -176
WIRE 240 64 240 -32
WIRE 256 64 240 64
WIRE 256 80 176 80
WIRE 352 80 352 -16
WIRE 400 80 352 80
WIRE 448 80 400 80
WIRE 256 96 144 96
WIRE 576 96 544 96
WIRE 448 112 416 112
WIRE 352 176 352 80
WIRE 352 176 240 176
WIRE 544 176 544 96
WIRE 544 176 432 176
WIRE 144 192 144 96
WIRE 144 192 112 192
WIRE 416 192 416 112
WIRE 544 192 416 192
WIRE 432 272 432 176
WIRE 448 272 432 272
WIRE 240 288 240 176
WIRE 256 288 240 288
WIRE 448 288 432 288
WIRE 544 288 544 192
WIRE 576 288 544 288
WIRE 144 304 144 192
WIRE 256 304 144 304
WIRE 400 304 352 304
WIRE 448 304 400 304
WIRE 256 320 224 320
WIRE 352 384 352 304
WIRE 352 384 240 384
WIRE 224 400 224 320
WIRE 352 400 224 400
WIRE 240 480 240 384
WIRE 256 480 240 480
WIRE 256 496 112 496
WIRE 352 496 352 400
WIRE 176 512 176 80
WIRE 256 512 176 512
WIRE 176 544 176 512
WIRE 176 544 112 544
WIRE 208 560 208 -128
WIRE 352 560 352 496
WIRE 352 560 208 560
WIRE 176 576 176 544
WIRE 432 576 432 288
WIRE 432 576 176 576
WIRE 288 608 288 544
WIRE 288 608 96 608
WIRE 480 608 480 336
WIRE 480 608 288 608
FLAG 112 496 D
IOPIN 112 496 In
FLAG 112 192 Clk
IOPIN 112 192 In
FLAG 112 -176 Vdd
IOPIN 112 -176 In
FLAG 96 608 Vss
IOPIN 96 608 In
FLAG 576 96 Q
IOPIN 576 96 Out
FLAG 576 288 Q_bar
IOPIN 576 288 Out
FLAG 400 80 S
FLAG 400 304 R
FLAG 112 544 Clear_n
IOPIN 112 544 In
FLAG 288 32 Vdd
FLAG 288 256 Vdd
FLAG 480 240 Vdd
FLAG 288 448 Vdd
FLAG 288 -64 Vss
FLAG 288 128 Vss
FLAG 480 144 Vss
FLAG 288 352 Vss
SYMBOL NAND2 464 96 R0
SYMATTR InstName NAND5
SYMBOL NAND2 272 -112 R0
SYMATTR InstName NAND1
SYMBOL NAND3 272 496 R0
SYMATTR InstName NAND4
SYMBOL NAND3 272 304 R0
SYMATTR InstName NAND3
SYMBOL NAND3 272 80 R0
SYMATTR InstName NAND2
SYMBOL NAND3 464 288 R0
SYMATTR InstName NAND6
