Version 4
SHEET 1 880 680
FLAG -48 48 5V
IOPIN -48 48 In
FLAG 32 48 0
FLAG 192 112 5V
IOPIN 192 112 In
FLAG -224 128 0
FLAG -192 304 clk
IOPIN -192 304 In
FLAG -112 304 0
FLAG 240 144 Q
IOPIN 240 144 Out
FLAG 240 208 Qneg
IOPIN 240 208 Out
FLAG 192 240 0
FLAG -304 128 D
IOPIN -304 128 In
FLAG 128 144 D
IOPIN 128 144 In
FLAG 128 208 clk
IOPIN 128 208 In
FLAG 192 -192 5V
IOPIN 192 -192 In
FLAG 192 -96 0
FLAG 160 -160 D
IOPIN 160 -160 In
FLAG 160 -128 D
IOPIN 160 -128 In
FLAG 256 -144 nand
IOPIN 256 -144 Out
SYMBOL D_latch 112 176 R0
SYMATTR InstName X1
SYMBOL voltage -64 48 R270
WINDOW 0 32 56 VTop 2
WINDOW 3 -32 56 VBottom 2
WINDOW 123 0 0 Left 0
WINDOW 39 0 0 Left 0
SYMATTR InstName V1
SYMATTR Value 5V
SYMBOL voltage -320 128 R270
WINDOW 0 32 56 VTop 2
WINDOW 3 -32 56 VBottom 2
WINDOW 123 0 0 Left 0
WINDOW 39 0 0 Left 0
SYMATTR InstName V2
SYMATTR Value PULSE(0 5 2ns 0ns 0ns 0.77ns 6ns 0)
SYMBOL voltage -208 304 R270
WINDOW 0 32 56 VTop 2
WINDOW 3 -32 56 VBottom 2
WINDOW 123 0 0 Left 0
WINDOW 39 0 0 Left 0
SYMATTR InstName V3
SYMATTR Value PULSE(0 5 0 0ns 0ns 3ns 6ns)
SYMBOL NAND2 176 -144 R0
SYMATTR InstName X2
TEXT -480 384 Left 2 !.tran 100ns
