Version 4
SHEET 1 1304 908
WIRE -96 -48 -320 -48
WIRE -16 -48 -96 -48
WIRE 400 -32 160 -32
WIRE -320 -16 -336 -16
WIRE -16 -16 -320 -16
WIRE -96 192 -96 -48
WIRE -16 192 -96 192
WIRE 400 192 400 -32
WIRE 400 208 160 208
WIRE 656 208 576 208
WIRE 752 208 656 208
WIRE -16 224 -96 224
WIRE -320 432 -320 -16
WIRE -256 432 -320 432
WIRE -16 432 -176 432
WIRE 400 448 400 224
WIRE 400 448 160 448
WIRE -96 464 -96 224
WIRE -16 464 -96 464
WIRE -96 608 -96 464
WIRE 656 608 656 208
WIRE 656 608 -96 608
FLAG -912 656 5V
IOPIN -912 656 In
FLAG -832 656 0
FLAG -928 96 0
FLAG -896 272 clk
IOPIN -896 272 In
FLAG -816 272 0
FLAG -1008 96 D
IOPIN -1008 96 In
FLAG 16 -80 5V
IOPIN 16 -80 In
FLAG 128 -64 5V
IOPIN 128 -64 In
FLAG 128 176 5V
IOPIN 128 176 In
FLAG 16 160 5V
IOPIN 16 160 In
FLAG 16 400 5V
IOPIN 16 400 In
FLAG 128 416 5V
IOPIN 128 416 In
FLAG 432 160 5V
IOPIN 432 160 In
FLAG 128 0 0
FLAG 16 16 0
FLAG 16 256 0
FLAG 128 240 0
FLAG 432 256 0
FLAG 128 480 0
FLAG 16 496 0
FLAG 544 240 0
FLAG 544 176 5V
IOPIN 544 176 In
FLAG 752 208 Latch
IOPIN 752 208 Out
FLAG -208 400 5V
IOPIN -208 400 In
FLAG -208 464 0
FLAG -320 -48 D
IOPIN -320 -48 In
FLAG -336 -16 clk
IOPIN -336 -16 In
SYMBOL NAND2 0 -32 R0
SYMATTR InstName X1
SYMBOL NOT 96 -32 R0
SYMATTR InstName X2
SYMBOL NAND2 0 208 R0
SYMATTR InstName X3
SYMBOL NOT 96 208 R0
SYMATTR InstName X4
SYMBOL NAND2 0 448 R0
SYMATTR InstName X5
SYMBOL NOT 96 448 R0
SYMATTR InstName X6
SYMBOL NOT 512 208 R0
SYMATTR InstName X8
SYMBOL NOR3 416 208 R0
SYMATTR InstName X7
SYMBOL voltage -928 656 R270
WINDOW 0 32 56 VTop 2
WINDOW 3 -32 56 VBottom 2
WINDOW 123 0 0 Left 0
WINDOW 39 0 0 Left 0
SYMATTR InstName V3
SYMATTR Value 5V
SYMBOL voltage -1024 96 R270
WINDOW 0 32 56 VTop 2
WINDOW 3 -32 56 VBottom 2
WINDOW 123 0 0 Left 0
WINDOW 39 0 0 Left 0
SYMATTR InstName V4
SYMATTR Value PULSE(0 5 {Tdelay} 1p 1p 1ns 6ns 0)
SYMBOL voltage -912 272 R270
WINDOW 0 32 56 VTop 2
WINDOW 3 -32 56 VBottom 2
WINDOW 123 0 0 Left 0
WINDOW 39 0 0 Left 0
SYMATTR InstName V5
SYMATTR Value PULSE(0 5 0 1p 1p 3ns 6ns)
SYMBOL NOT -240 432 R0
SYMATTR InstName X11
TEXT 640 0 Left 2 !.tran 100ns\n.param Tdelay=0\n.step param Tdelay list 3.3n 3.25n 3.1n 3n 2.9n 2.8n 2.5n
