Version 4
SHEET 1 880 680
WIRE -48 -80 -128 -80
WIRE 80 -80 -48 -80
WIRE 208 -80 80 -80
WIRE 80 -48 80 -80
WIRE -96 -16 -128 -16
WIRE 48 -16 -96 -16
WIRE 48 16 16 16
WIRE -48 48 -48 -80
WIRE 208 48 208 -80
WIRE -96 80 -96 -16
WIRE -80 80 -96 80
WIRE 144 80 144 0
WIRE 176 80 144 80
WIRE 16 96 16 16
WIRE 304 96 272 96
WIRE -80 112 -96 112
WIRE 176 112 144 112
WIRE 16 128 16 96
WIRE 16 176 16 128
WIRE 48 176 16 176
WIRE 144 192 144 112
WIRE -96 208 -96 112
WIRE -96 208 -128 208
WIRE 48 208 -96 208
WIRE -48 272 -48 144
WIRE -48 272 -128 272
WIRE 80 272 80 240
WIRE 80 272 -48 272
WIRE 208 272 208 144
WIRE 208 272 80 272
FLAG -128 -80 Vdd
IOPIN -128 -80 In
FLAG -128 272 Vss
IOPIN -128 272 In
FLAG -128 -16 In1
IOPIN -128 -16 In
FLAG -128 208 In2
IOPIN -128 208 In
FLAG 304 96 Out
IOPIN 304 96 Out
FLAG 80 144 Vdd
FLAG 80 48 Vss
FLAG 16 128 w1
FLAG 144 0 w2
FLAG 144 192 w3
SYMBOL NAND2 -64 96 R0
SYMATTR InstName Nand2_1
SYMBOL NAND2 64 0 R0
SYMATTR InstName Nand2_2
SYMBOL NAND2 64 192 R0
SYMATTR InstName Nand2_3
SYMBOL NAND2 192 96 R0
SYMATTR InstName Nand2_4
